*Heading
**3D Modeling
** ----------------------------------------------------------------------- input
** PARTS
** ----------------------------------------------------------------------- node list
*Node
1, 0.0, 0.0, 0.0
2, 0.5, 0.0, 0.0
3, 1.0, 0.0, 0.0
4, 1.5, 0.0, 0.0
5, 2.0, 0.0, 0.0
6, 0.0, 0.5, 0.0
7, 0.5, 0.5, 0.0
8, 1.0, 0.5, 0.0
9, 1.5, 0.5, 0.0
10, 2.0, 0.5, 0.0
11, 0.0, 1.0, 0.0
12, 0.5, 1.0, 0.0
13, 1.0, 1.0, 0.0
14, 1.5, 1.0, 0.0
15, 2.0, 1.0, 0.0
16, 0.0, 1.5, 0.0
17, 0.5, 1.5, 0.0
18, 1.0, 1.5, 0.0
19, 1.5, 1.5, 0.0
20, 2.0, 1.5, 0.0
** ... 105 like lines cut
**
** ----------------------------------------------------------------------- element list
*Element, type=C3D8R
1, 31, 26, 1, 6, 32, 27, 2, 7
2, 32, 27, 2, 7, 33, 28, 3, 8
3, 33, 28, 3, 8, 34, 29, 4, 9
4, 34, 29, 4, 9, 35, 30, 5, 10
5, 36, 31, 6, 11, 37, 32, 7, 12
6, 37, 32, 7, 12, 38, 33, 8, 13
7, 38, 33, 8, 13, 39, 34, 9, 14
8, 39, 34, 9, 14, 40, 35, 10, 15
9, 41, 36, 11, 16, 42, 37, 12, 17
10, 42, 37, 12, 17, 43, 38, 13, 18
11, 43, 38, 13, 18, 44, 39, 14, 19
12, 44, 39, 14, 19, 45, 40, 15, 20
13, 46, 41, 16, 21, 47, 42, 17, 22
14, 47, 42, 17, 22, 48, 43, 18, 23
15, 48, 43, 18, 23, 49, 44, 19, 24
16, 49, 44, 19, 24, 50, 45, 20, 25
17, 56, 51, 26, 31, 57, 52, 27, 32
18, 57, 52, 27, 32, 58, 53, 28, 33
19, 58, 53, 28, 33, 59, 54, 29, 34
20, 59, 54, 29, 34, 60, 55, 30, 35
** ... 44 like lines cut
**
**------------------------------------------------------------------------ sets
*Nset, nset=LeftSurface
1
6
11
16
21
26
31
36
41
46
51
56
61
66
71
76
81
86
91
96
** ... 5 like lines cut
*Nset, nset=RightSurface
5
10
15
20
25
30
35
40
45
50
55
60
65
70
75
80
85
90
95
100
** ... 5 like lines cut
*Nset, nset=TopSurface
102
103
104
105
106
107
108
109
110
111
112
113
114
115
116
117
118
119
120
121
** ... 4 like lines cut
*Nset, nset=BottomSurface
2
3
4
5
6
7
8
9
10
11
12
13
14
15
16
17
18
19
20
21
** ... 4 like lines cut
*Nset, nset=FrontSurface
2
3
4
5
26
27
28
29
30
51
52
53
54
55
76
77
78
79
80
101
** ... 4 like lines cut
*Nset, nset=BackSurface
22
23
24
25
46
47
48
49
50
71
72
73
74
75
96
97
98
99
100
121
** ... 4 like lines cut
*Nset, nset=BotmLeftBack
21
*Nset, nset=TopLeftBack
121
*Nset, nset=BotmLeftFront
1
*Nset, nset=TopLeftFront
101
*Elset, elset=Set-PTC
1
54
*Elset, elset=Set-INT-1
2
5
6
17
18
21
22
33
34
35
37
38
39
41
42
43
49
50
51
53
** ... 4 like lines cut
*Elset, elset=Set-INT-2
3
7
9
10
11
19
20
23
24
25
26
27
28
29
30
31
32
36
40
44
** ... 11 like lines cut
*Elset, elset=Set-INT-3
4
8
12
13
14
15
16
** -------------------------------------------------------------------- section
** Section: Sec-MAT
*Solid Section, elset=Set-MAT, material=MAT-MATRIX
1.,
** Section: Sec-INT-1
*Solid Section, elset=Set-INT-1, material=MAT-INTERPHASE-1
1.,
** Section: Sec-INT-2
*Solid Section, elset=Set-INT-2, material=MAT-INTERPHASE-1
1.,
** Section: Sec-INT-3
*Solid Section, elset=Set-INT-3, material=MAT-INTERPHASE-1
1.,
** Section: Sec-PTC
*Solid Section, elset=Set-PTC, material=MAT-PARTICLE
1.,
** --------------------------------------------------------------------- equation
** Constraint: Eqn-1
*Equation
2
TopSurface, 3, 1.
TopLeftFront, 3, -1.
** Constraint: Eqn-2
*Equation
2
BottomSurface, 3, 1.
BotmLeftFront, 3, -1.
** Constraint: Eqn-3
*Equation
2
FrontSurface, 2, 1.
BotmLeftFront, 2, -1.
** Constraint: Eqn-4
*Equation
2
BackSurface, 2, 1.
BotmLeftBack, 2, -1.
**---------------------------------------------------------------------- material
**
** MATERIALS
**
*Material, name=MAT-PARTICLE
*Density
 1.89e-21,
*Elastic
 0.02, 0.3
*Material, name=MAT-MATRIX
*Density
 8.9e-22,
*Elastic, moduli=LONG TERM
 8.64e-07, 0.499946335404
*Viscoelastic, frequency=TABULAR
0.0900495440668,	0.0,	0,	0,	2.70563403256e-06
0.081484568804,	-0.025463957116,	0,	0,	2.81704249273e-06
0.090397025869,	-0.038195871986,	0,	0,	2.91253545858e-06
0.104170872346,	-0.0601873874118,	0,	0,	3.00802842444e-06
0.0791697384053,	-0.0381959400961,	0,	0,	3.1194368846e-06
0.0821791280384,	-0.040510827548,	0,	0,	3.21492985046e-06
0.0946797484215,	-0.0601874549329,	0,	0,	3.34225380493e-06
0.074655835129,	-0.0682897575508,	0,	0,	3.45366226509e-06
0.0810218768348,	-0.0752344526695,	0,	0,	3.59690171388e-06
0.0806746335385,	-0.0740769993428,	0,	0,	3.72422566835e-06
0.0748874377283,	-0.0891239583889,	0,	0,	3.86746511713e-06
0.0710678547103,	-0.0937538052353,	0,	0,	3.99478907161e-06
0.0766236606041,	-0.0960686899052,	0,	0,	4.13802852039e-06
0.0826424854805,	-0.104170857721,	0,	0,	4.31309895779e-06
0.0751190721245,	-0.115745482775,	0,	0,	4.47225390088e-06
0.0847260287718,	-0.123847641354,	0,	0,	4.66323983259e-06
0.0701421157313,	-0.138894702581,	0,	0,	4.88605675292e-06
0.0620398654515,	-0.133107438816,	0,	0,	5.06112719032e-06
0.0625029582272,	-0.157414121593,	0,	0,	5.22028213341e-06
0.0821794411143,	-0.0937537443148,	0,	0,	5.47493004236e-06
** ... 210 like lines cut
*Material, name=MAT-INTERPHASE-1
*Density
 8.9e-22,
*Elastic, moduli=LONG TERM
 8.64e-07, 0.499946335404
*Viscoelastic, frequency=TABULAR
0.0900495440668,	0.0,	0,	0,	7.70955994041e-18
0.081484568804,	-0.025463957116,	0,	0,	8.6653698185e-18
0.090397025869,	-0.038195871986,	0,	0,	9.54378549812e-18
0.104170872346,	-0.0601873874118,	0,	0,	1.04785527274e-17
0.0791697384053,	-0.0381959400961,	0,	0,	1.16425421404e-17
0.0821791280384,	-0.040510827548,	0,	0,	1.27050693489e-17
0.0946797484215,	-0.0601874549329,	0,	0,	1.42178293973e-17
0.074655835129,	-0.0682897575508,	0,	0,	1.56343311535e-17
0.0810218768348,	-0.0752344526695,	0,	0,	1.75872127256e-17
0.0806746335385,	-0.0740769993428,	0,	0,	1.945154682e-17
0.0748874377283,	-0.0891239583889,	0,	0,	2.16983816819e-17
0.0710678547103,	-0.0937538052353,	0,	0,	2.38326480937e-17
0.0766236606041,	-0.0960686899052,	0,	0,	2.63928408242e-17
0.0826424854805,	-0.104170857721,	0,	0,	2.97584007178e-17
0.0751190721245,	-0.115745482775,	0,	0,	3.30514348758e-17
0.0847260287718,	-0.123847641354,	0,	0,	3.73072046129e-17
0.0701421157313,	-0.138894702581,	0,	0,	4.27075761764e-17
0.0620398654515,	-0.133107438816,	0,	0,	4.72919524e-17
0.0625029582272,	-0.157414121593,	0,	0,	5.17290299532e-17
0.0821794411143,	-0.0937537443148,	0,	0,	5.9380685456e-17
** ... 210 like lines cut
*Material, name=MAT-INTERPHASE-2
*Density
 8.9e-22,
*Elastic, moduli=LONG TERM
 8.64e-07, 0.499946335404
*Viscoelastic, frequency=TABULAR
0.0900495440668,	0.0,	0,	0,	3.86747745493e-10
0.081484568804,	-0.025463957116,	0,	0,	4.1416855115e-10
0.090397025869,	-0.038195871986,	0,	0,	4.38283046434e-10
0.104170872346,	-0.0601873874118,	0,	0,	4.629555134e-10
0.0791697384053,	-0.0381959400961,	0,	0,	4.92438056375e-10
0.0821791280384,	-0.040510827548,	0,	0,	5.18301166823e-10
0.0946797484215,	-0.0601874549329,	0,	0,	5.53626890764e-10
0.074655835129,	-0.0682897575508,	0,	0,	5.85317819383e-10
0.0810218768348,	-0.0752344526695,	0,	0,	6.27122218892e-10
0.0806746335385,	-0.0740769993428,	0,	0,	6.65270921715e-10
0.0748874377283,	-0.0891239583889,	0,	0,	7.09288489106e-10
0.0710678547103,	-0.0937538052353,	0,	0,	7.49382956174e-10
0.0766236606041,	-0.0960686899052,	0,	0,	7.95566444819e-10
0.0826424854805,	-0.104170857721,	0,	0,	8.53544896497e-10
0.0751190721245,	-0.115745482775,	0,	0,	9.076983593e-10
0.0847260287718,	-0.123847641354,	0,	0,	9.74478303442e-10
0.0701421157313,	-0.138894702581,	0,	0,	1.05483324271e-09
0.0620398654515,	-0.133107438816,	0,	0,	1.11979359905e-09
0.0625029582272,	-0.157414121593,	0,	0,	1.18022589423e-09
0.0821794411143,	-0.0937537443148,	0,	0,	1.27961497501e-09
** ... 210 like lines cut
*Material, name=MAT-INTERPHASE-3
*Density
 8.9e-22,
*Elastic, moduli=LONG TERM
 8.64e-07, 0.499946335404
*Viscoelastic, frequency=TABULAR
0.0900495440668,	0.0,	0,	0,	1.18136482582e-07
0.081484568804,	-0.025463957116,	0,	0,	1.24281111262e-07
0.090397025869,	-0.038195871986,	0,	0,	1.29597898926e-07
0.104170872346,	-0.0601873874118,	0,	0,	1.34959613073e-07
0.0791697384053,	-0.0381959400961,	0,	0,	1.41270310794e-07
0.0821791280384,	-0.040510827548,	0,	0,	1.46725788538e-07
0.0946797484215,	-0.0601874549329,	0,	0,	1.54064538414e-07
0.074655835129,	-0.0682897575508,	0,	0,	1.60545162068e-07
0.0810218768348,	-0.0752344526695,	0,	0,	1.68956376134e-07
0.0806746335385,	-0.0740769993428,	0,	0,	1.76505632084e-07
0.0748874377283,	-0.0891239583889,	0,	0,	1.85077985932e-07
0.0710678547103,	-0.0937538052353,	0,	0,	1.92766658753e-07
0.0766236606041,	-0.0960686899052,	0,	0,	2.01491824964e-07
0.0826424854805,	-0.104170857721,	0,	0,	2.12261452737e-07
0.0751190721245,	-0.115745482775,	0,	0,	2.2214998228e-07
0.0847260287718,	-0.123847641354,	0,	0,	2.34135772774e-07
0.0701421157313,	-0.138894702581,	0,	0,	2.48279009416e-07
0.0620398654515,	-0.133107438816,	0,	0,	2.59508651129e-07
0.0625029582272,	-0.157414121593,	0,	0,	2.69804378526e-07
0.0821794411143,	-0.0937537443148,	0,	0,	2.86445009492e-07
** ... 210 like lines cut
** ----------------------------------------------------------------
*STEP,NAME=STEP-1,PERTURBATION
3D,TENSIONXX
*STEADY STATE DYNAMICS, DIRECT
1e-06, 1000000.0, 50, 1,
*BOUNDARY
BotmLeftFront,1,6
LeftSurface, 1, 1
RightSurface, 1, 1, 0.01
***************************************************************************************************
**OUTPUT REQUEST
**
*RESTART,WRITE,frequency=0
**
**FIELD OUTPUT: F-OUTPUT-1
**
*Output, field, variable=PRESELECT
*element output
evol
**
**HISTORY OUTPUT: H-OUTPUT-1
**
*END STEP
