*Heading
**3D Modeling
** ----------------------------------------------------------------------- input
** PARTS
** ----------------------------------------------------------------------- node list
*Node
1, 0.0, 0.0, 0.0
2, 0.5, 0.0, 0.0
3, 1.0, 0.0, 0.0
4, 1.5, 0.0, 0.0
5, 2.0, 0.0, 0.0
6, 2.5, 0.0, 0.0
7, 3.0, 0.0, 0.0
8, 3.5, 0.0, 0.0
9, 4.0, 0.0, 0.0
10, 4.5, 0.0, 0.0
11, 0.0, 0.5, 0.0
12, 0.5, 0.5, 0.0
13, 1.0, 0.5, 0.0
14, 1.5, 0.5, 0.0
15, 2.0, 0.5, 0.0
16, 2.5, 0.5, 0.0
17, 3.0, 0.5, 0.0
18, 3.5, 0.5, 0.0
19, 4.0, 0.5, 0.0
20, 4.5, 0.5, 0.0
** ... 980 like lines cut
**
** ----------------------------------------------------------------------- element list
*Element, type=C3D8R
1, 111, 101, 1, 11, 112, 102, 2, 12
2, 112, 102, 2, 12, 113, 103, 3, 13
3, 113, 103, 3, 13, 114, 104, 4, 14
4, 114, 104, 4, 14, 115, 105, 5, 15
5, 115, 105, 5, 15, 116, 106, 6, 16
6, 116, 106, 6, 16, 117, 107, 7, 17
7, 117, 107, 7, 17, 118, 108, 8, 18
8, 118, 108, 8, 18, 119, 109, 9, 19
9, 119, 109, 9, 19, 120, 110, 10, 20
10, 121, 111, 11, 21, 122, 112, 12, 22
11, 122, 112, 12, 22, 123, 113, 13, 23
12, 123, 113, 13, 23, 124, 114, 14, 24
13, 124, 114, 14, 24, 125, 115, 15, 25
14, 125, 115, 15, 25, 126, 116, 16, 26
15, 126, 116, 16, 26, 127, 117, 17, 27
16, 127, 117, 17, 27, 128, 118, 18, 28
17, 128, 118, 18, 28, 129, 119, 19, 29
18, 129, 119, 19, 29, 130, 120, 20, 30
19, 131, 121, 21, 31, 132, 122, 22, 32
20, 132, 122, 22, 32, 133, 123, 23, 33
** ... 709 like lines cut
**
**------------------------------------------------------------------------ sets
*Nset, nset=LeftSurface
1
11
21
31
41
51
61
71
81
91
101
111
121
131
141
151
161
171
181
191
** ... 80 like lines cut
*Nset, nset=RightSurface
10
20
30
40
50
60
70
80
90
100
110
120
130
140
150
160
170
180
190
200
** ... 80 like lines cut
*Nset, nset=TopSurface
902
903
904
905
906
907
908
909
910
911
912
913
914
915
916
917
918
919
920
921
** ... 79 like lines cut
*Nset, nset=BottomSurface
2
3
4
5
6
7
8
9
10
11
12
13
14
15
16
17
18
19
20
21
** ... 79 like lines cut
*Nset, nset=FrontSurface
2
3
4
5
6
7
8
9
10
101
102
103
104
105
106
107
108
109
110
201
** ... 79 like lines cut
*Nset, nset=BackSurface
92
93
94
95
96
97
98
99
100
191
192
193
194
195
196
197
198
199
200
291
** ... 79 like lines cut
*Nset, nset=BotmLeftBack
91
*Nset, nset=TopLeftBack
991
*Nset, nset=BotmLeftFront
1
*Nset, nset=TopLeftFront
901
*Elset, elset=Set-PTC
365
729
*Elset, elset=Set-INT-1
274
275
276
283
284
285
292
293
294
355
356
357
364
366
373
374
375
436
437
438
** ... 13 like lines cut
*Elset, elset=Set-INT-2
183
184
185
186
187
192
193
194
195
196
201
202
203
204
205
210
211
212
213
214
** ... 96 like lines cut
*Elset, elset=Set-INT-3
92
93
94
95
96
97
98
101
102
103
104
105
106
107
110
111
112
113
114
115
** ... 209 like lines cut
*Elset, elset=Set-INT-4
1
2
3
4
5
6
7
8
9
10
11
12
13
14
15
16
17
18
19
20
** ... 329 like lines cut
** -------------------------------------------------------------------- section
** Section: Sec-MAT
*Solid Section, elset=Set-MAT, material=MAT-MATRIX
1.,
** Section: Sec-INT-1
*Solid Section, elset=Set-INT-1, material=MAT-INTERPHASE-1
1.,
** Section: Sec-INT-2
*Solid Section, elset=Set-INT-2, material=MAT-INTERPHASE-1
1.,
** Section: Sec-INT-3
*Solid Section, elset=Set-INT-3, material=MAT-INTERPHASE-1
1.,
** Section: Sec-INT-4
*Solid Section, elset=Set-INT-4, material=MAT-INTERPHASE-1
1.,
** Section: Sec-PTC
*Solid Section, elset=Set-PTC, material=MAT-PARTICLE
1.,
** --------------------------------------------------------------------- equation
** Constraint: Eqn-1
*Equation
2
TopSurface, 3, 1.
TopLeftFront, 3, -1.
** Constraint: Eqn-2
*Equation
2
BottomSurface, 3, 1.
BotmLeftFront, 3, -1.
** Constraint: Eqn-3
*Equation
2
FrontSurface, 2, 1.
BotmLeftFront, 2, -1.
** Constraint: Eqn-4
*Equation
2
BackSurface, 2, 1.
BotmLeftBack, 2, -1.
**---------------------------------------------------------------------- material
**
** MATERIALS
**
*Material, name=MAT-PARTICLE
*Density
 1.89e-21,
*Elastic
 0.02, 0.3
*Material, name=MAT-MATRIX
*Density
 8.9e-22,
*Elastic, moduli=LONG TERM
 8.64e-07, 0.499946335404
*Viscoelastic, frequency=TABULAR
0.0900495440668,	0.0,	0,	0,	2.70563403256e-06
0.081484568804,	-0.025463957116,	0,	0,	2.81704249273e-06
0.090397025869,	-0.038195871986,	0,	0,	2.91253545858e-06
0.104170872346,	-0.0601873874118,	0,	0,	3.00802842444e-06
0.0791697384053,	-0.0381959400961,	0,	0,	3.1194368846e-06
0.0821791280384,	-0.040510827548,	0,	0,	3.21492985046e-06
0.0946797484215,	-0.0601874549329,	0,	0,	3.34225380493e-06
0.074655835129,	-0.0682897575508,	0,	0,	3.45366226509e-06
0.0810218768348,	-0.0752344526695,	0,	0,	3.59690171388e-06
0.0806746335385,	-0.0740769993428,	0,	0,	3.72422566835e-06
0.0748874377283,	-0.0891239583889,	0,	0,	3.86746511713e-06
0.0710678547103,	-0.0937538052353,	0,	0,	3.99478907161e-06
0.0766236606041,	-0.0960686899052,	0,	0,	4.13802852039e-06
0.0826424854805,	-0.104170857721,	0,	0,	4.31309895779e-06
0.0751190721245,	-0.115745482775,	0,	0,	4.47225390088e-06
0.0847260287718,	-0.123847641354,	0,	0,	4.66323983259e-06
0.0701421157313,	-0.138894702581,	0,	0,	4.88605675292e-06
0.0620398654515,	-0.133107438816,	0,	0,	5.06112719032e-06
0.0625029582272,	-0.157414121593,	0,	0,	5.22028213341e-06
0.0821794411143,	-0.0937537443148,	0,	0,	5.47493004236e-06
** ... 210 like lines cut
*Material, name=MAT-INTERPHASE-1
*Density
 8.9e-22,
*Elastic, moduli=LONG TERM
 8.64e-07, 0.499946335404
*Viscoelastic, frequency=TABULAR
0.0900495440668,	0.0,	0,	0,	7.70955994041e-18
0.081484568804,	-0.025463957116,	0,	0,	8.6653698185e-18
0.090397025869,	-0.038195871986,	0,	0,	9.54378549812e-18
0.104170872346,	-0.0601873874118,	0,	0,	1.04785527274e-17
0.0791697384053,	-0.0381959400961,	0,	0,	1.16425421404e-17
0.0821791280384,	-0.040510827548,	0,	0,	1.27050693489e-17
0.0946797484215,	-0.0601874549329,	0,	0,	1.42178293973e-17
0.074655835129,	-0.0682897575508,	0,	0,	1.56343311535e-17
0.0810218768348,	-0.0752344526695,	0,	0,	1.75872127256e-17
0.0806746335385,	-0.0740769993428,	0,	0,	1.945154682e-17
0.0748874377283,	-0.0891239583889,	0,	0,	2.16983816819e-17
0.0710678547103,	-0.0937538052353,	0,	0,	2.38326480937e-17
0.0766236606041,	-0.0960686899052,	0,	0,	2.63928408242e-17
0.0826424854805,	-0.104170857721,	0,	0,	2.97584007178e-17
0.0751190721245,	-0.115745482775,	0,	0,	3.30514348758e-17
0.0847260287718,	-0.123847641354,	0,	0,	3.73072046129e-17
0.0701421157313,	-0.138894702581,	0,	0,	4.27075761764e-17
0.0620398654515,	-0.133107438816,	0,	0,	4.72919524e-17
0.0625029582272,	-0.157414121593,	0,	0,	5.17290299532e-17
0.0821794411143,	-0.0937537443148,	0,	0,	5.9380685456e-17
** ... 210 like lines cut
*Material, name=MAT-INTERPHASE-2
*Density
 8.9e-22,
*Elastic, moduli=LONG TERM
 8.64e-07, 0.499946335404
*Viscoelastic, frequency=TABULAR
0.0900495440668,	0.0,	0,	0,	3.86747745493e-10
0.081484568804,	-0.025463957116,	0,	0,	4.1416855115e-10
0.090397025869,	-0.038195871986,	0,	0,	4.38283046434e-10
0.104170872346,	-0.0601873874118,	0,	0,	4.629555134e-10
0.0791697384053,	-0.0381959400961,	0,	0,	4.92438056375e-10
0.0821791280384,	-0.040510827548,	0,	0,	5.18301166823e-10
0.0946797484215,	-0.0601874549329,	0,	0,	5.53626890764e-10
0.074655835129,	-0.0682897575508,	0,	0,	5.85317819383e-10
0.0810218768348,	-0.0752344526695,	0,	0,	6.27122218892e-10
0.0806746335385,	-0.0740769993428,	0,	0,	6.65270921715e-10
0.0748874377283,	-0.0891239583889,	0,	0,	7.09288489106e-10
0.0710678547103,	-0.0937538052353,	0,	0,	7.49382956174e-10
0.0766236606041,	-0.0960686899052,	0,	0,	7.95566444819e-10
0.0826424854805,	-0.104170857721,	0,	0,	8.53544896497e-10
0.0751190721245,	-0.115745482775,	0,	0,	9.076983593e-10
0.0847260287718,	-0.123847641354,	0,	0,	9.74478303442e-10
0.0701421157313,	-0.138894702581,	0,	0,	1.05483324271e-09
0.0620398654515,	-0.133107438816,	0,	0,	1.11979359905e-09
0.0625029582272,	-0.157414121593,	0,	0,	1.18022589423e-09
0.0821794411143,	-0.0937537443148,	0,	0,	1.27961497501e-09
** ... 210 like lines cut
*Material, name=MAT-INTERPHASE-3
*Density
 8.9e-22,
*Elastic, moduli=LONG TERM
 8.64e-07, 0.499946335404
*Viscoelastic, frequency=TABULAR
0.0900495440668,	0.0,	0,	0,	1.18136482582e-07
0.081484568804,	-0.025463957116,	0,	0,	1.24281111262e-07
0.090397025869,	-0.038195871986,	0,	0,	1.29597898926e-07
0.104170872346,	-0.0601873874118,	0,	0,	1.34959613073e-07
0.0791697384053,	-0.0381959400961,	0,	0,	1.41270310794e-07
0.0821791280384,	-0.040510827548,	0,	0,	1.46725788538e-07
0.0946797484215,	-0.0601874549329,	0,	0,	1.54064538414e-07
0.074655835129,	-0.0682897575508,	0,	0,	1.60545162068e-07
0.0810218768348,	-0.0752344526695,	0,	0,	1.68956376134e-07
0.0806746335385,	-0.0740769993428,	0,	0,	1.76505632084e-07
0.0748874377283,	-0.0891239583889,	0,	0,	1.85077985932e-07
0.0710678547103,	-0.0937538052353,	0,	0,	1.92766658753e-07
0.0766236606041,	-0.0960686899052,	0,	0,	2.01491824964e-07
0.0826424854805,	-0.104170857721,	0,	0,	2.12261452737e-07
0.0751190721245,	-0.115745482775,	0,	0,	2.2214998228e-07
0.0847260287718,	-0.123847641354,	0,	0,	2.34135772774e-07
0.0701421157313,	-0.138894702581,	0,	0,	2.48279009416e-07
0.0620398654515,	-0.133107438816,	0,	0,	2.59508651129e-07
0.0625029582272,	-0.157414121593,	0,	0,	2.69804378526e-07
0.0821794411143,	-0.0937537443148,	0,	0,	2.86445009492e-07
** ... 210 like lines cut
*Material, name=MAT-INTERPHASE-4
*Density
 8.9e-22,
*Elastic, moduli=LONG TERM
 8.64e-07, 0.499946335404
*Viscoelastic, frequency=TABULAR
0.0900495440668,	0.0,	0,	0,	7.84620999069e-07
0.081484568804,	-0.025463957116,	0,	0,	8.20231996281e-07
0.090397025869,	-0.038195871986,	0,	0,	8.50868238177e-07
0.104170872346,	-0.0601873874118,	0,	0,	8.81605108775e-07
0.0791697384053,	-0.0381959400961,	0,	0,	9.17588141055e-07
0.0821791280384,	-0.040510827548,	0,	0,	9.48533382544e-07
0.0946797484215,	-0.0601874549329,	0,	0,	9.89936500829e-07
0.074655835129,	-0.0682897575508,	0,	0,	1.02629407308e-06
0.0810218768348,	-0.0752344526695,	0,	0,	1.0732116951e-06
0.0806746335385,	-0.0740769993428,	0,	0,	1.115073659e-06
0.0748874377283,	-0.0891239583889,	0,	0,	1.16233954762e-06
0.0710678547103,	-0.0937538052353,	0,	0,	1.20450111741e-06
0.0766236606041,	-0.0960686899052,	0,	0,	1.25209360197e-06
0.0826424854805,	-0.104170857721,	0,	0,	1.31048584263e-06
0.0751190721245,	-0.115745482775,	0,	0,	1.36377606946e-06
0.0847260287718,	-0.123847641354,	0,	0,	1.42797464426e-06
0.0701421157313,	-0.138894702581,	0,	0,	1.50320539793e-06
0.0620398654515,	-0.133107438816,	0,	0,	1.56255727629e-06
0.0625029582272,	-0.157414121593,	0,	0,	1.61669219511e-06
0.0821794411143,	-0.0937537443148,	0,	0,	1.70365008959e-06
** ... 210 like lines cut
** ----------------------------------------------------------------
*STEP,NAME=STEP-1,PERTURBATION
3D,TENSIONXX
*STEADY STATE DYNAMICS, DIRECT
1e-06, 1000000.0, 50, 1,
*BOUNDARY
BotmLeftFront,1,6
LeftSurface, 1, 1
RightSurface, 1, 1, 0.0225
***************************************************************************************************
**OUTPUT REQUEST
**
*RESTART,WRITE,frequency=0
**
**FIELD OUTPUT: F-OUTPUT-1
**
*Output, field, variable=PRESELECT
*element output
evol
**
**HISTORY OUTPUT: H-OUTPUT-1
**
*END STEP
